6
Coordinates from ORCA-job ts
  C   -0.61334127414709     -0.02294563551103      0.01142819613520
  Cl  1.74388389798400      0.06312209667090     -0.01609588235295
  H   -0.60380551935560     -0.58203160082972     -0.92540437557113
  H   -0.58281203700186     -0.55294221137444      0.96455922382117
  H   -0.65314306628625      1.06688825966645     -0.00496861427816
  Cl  -2.97037200119320     -0.10845090862214      0.03889145224585