6

C        -0.75437152539254    2.39410282501685    0.01468706475532
N         0.37808444880251    2.54457355818082    0.03212809000659
C        -2.17856374849729    2.20516642493630   -0.00629467053113
H        -2.45670517999426    1.63329684231093   -0.89094746521594
H        -2.48699690793857    1.66348571602160    0.88727166743659
H        -2.67391708697985    3.17522463353350   -0.03120468645142
